REMARK  5 active torsions:
REMARK  status: ('A' for Active; 'I' for Inactive)
REMARK    1  A    between atoms: N_5  and  C_6 
REMARK    2  A    between atoms: C_8  and  C_10 
REMARK    3  A    between atoms: N_9  and  C_16 
REMARK    4  A    between atoms: N_9  and  C_15 
REMARK    5  A    between atoms: N_11  and  C_19 
ROOT
HETATM    1  N   UNL     1       0.527   1.103   0.344  1.00  0.00    -0.075 NA
HETATM    2  C   UNL     1      -2.083   0.449   0.137  1.00  0.00     0.096 A 
HETATM    3  C   UNL     1      -1.710   1.776   0.392  1.00  0.00     0.053 A 
HETATM    4  N   UNL     1      -1.130  -0.475   0.001  1.00  0.00    -0.061 NA
HETATM    5  C   UNL     1      -0.364   2.072   0.491  1.00  0.00     0.139 A 
HETATM    6  C   UNL     1       0.147  -0.144   0.104  1.00  0.00     0.727 A 
ENDROOT
BRANCH   6   7
HETATM    7  N   UNL     1       1.112  -1.127  -0.043  1.00  0.00    -0.188 N 
HETATM    8  H   UNL     1       0.849  -2.055  -0.139  1.00  0.00     0.184 HD
BRANCH   7   9
HETATM    9  C   UNL     1       2.470  -0.779  -0.053  1.00  0.00     0.049 A 
HETATM   10  C   UNL     1       3.399  -1.593   0.581  1.00  0.00     0.032 A 
HETATM   11  C   UNL     1       4.737  -1.250   0.570  1.00  0.00     0.031 A 
HETATM   12  C   UNL     1       5.153  -0.093  -0.074  1.00  0.00     0.029 A 
HETATM   13  C   UNL     1       4.222   0.721  -0.708  1.00  0.00     0.031 A 
HETATM   14  C   UNL     1       2.886   0.376  -0.702  1.00  0.00     0.032 A 
BRANCH  12  15
HETATM   15  N   UNL     1       6.508   0.255  -0.084  1.00  0.00    -0.390 N 
HETATM   16  C   UNL     1       7.489  -0.604   0.585  1.00  0.00     0.149 C 
HETATM   17  C   UNL     1       6.946   1.476  -0.764  1.00  0.00     0.149 C 
ENDBRANCH  12  15
ENDBRANCH   7   9
ENDBRANCH   6   7
BRANCH   2  18
HETATM   18  C   UNL     1      -3.505   0.080   0.023  1.00  0.00     0.062 A 
HETATM   19  S   UNL     1      -4.876   1.176   0.176  1.00  0.00    -0.048 SA
HETATM   20  C   UNL     1      -5.957  -0.119  -0.097  1.00  0.00     0.165 A 
HETATM   21  N   UNL     1      -5.299  -1.226  -0.276  1.00  0.00    -0.228 NA
HETATM   22  C   UNL     1      -3.988  -1.158  -0.219  1.00  0.00     0.053 A 
HETATM   23  C   UNL     1      -3.099  -2.360  -0.408  1.00  0.00     0.072 C 
BRANCH  20  24
HETATM   24  N   UNL     1      -7.334  -0.007  -0.123  1.00  0.00    -0.378 N 
HETATM   25  H   UNL     1      -7.753   0.857   0.020  1.00  0.00     0.158 HD
HETATM   26  H   UNL     1      -7.882  -0.790  -0.284  1.00  0.00     0.158 HD
ENDBRANCH  20  24
ENDBRANCH   2  18
TORSDOF 5
