18K
  CCTOOLS-0727121125

 41 43  0  0  0  0  0  0  0  0999 V2000
   -4.8760    1.1760    0.1760 S   0  0  0  0  0
   -3.0990   -2.3600   -0.4080 C   0  0  0  0  0
   -5.2990   -1.2260   -0.2760 N   0  0  0  0  0
   -3.9880   -1.1580   -0.2190 C   0  0  0  0  0
   -7.3340   -0.0070   -0.1230 N   0  0  0  0  0
   -5.9570   -0.1190   -0.0970 C   0  0  0  0  0
    0.5270    1.1030    0.3440 N   0  0  0  0  0
   -3.5050    0.0800    0.0230 C   0  0  0  0  0
    1.1120   -1.1270   -0.0430 N   0  0  0  0  0
   -2.0830    0.4490    0.1370 C   0  0  0  0  0
    6.5080    0.2550   -0.0840 N   0  0  0  0  0
   -1.7100    1.7760    0.3920 C   0  0  0  0  0
   -1.1300   -0.4750    0.0010 N   0  0  0  0  0
   -0.3640    2.0720    0.4910 C   0  0  0  0  0
    0.1470   -0.1440    0.1040 C   0  0  0  0  0
    2.4700   -0.7790   -0.0530 C   0  0  0  0  0
    3.3990   -1.5930    0.5810 C   0  0  0  0  0
    4.7370   -1.2500    0.5700 C   0  0  0  0  0
    5.1530   -0.0930   -0.0740 C   0  0  0  0  0
    6.9460    1.4760   -0.7640 C   0  0  0  0  0
    7.4890   -0.6040    0.5850 C   0  0  0  0  0
    4.2220    0.7210   -0.7080 C   0  0  0  0  0
    2.8860    0.3760   -0.7020 C   0  0  0  0  0
   -2.8500   -2.4650   -1.4640 H   0  0  0  0  0
   -2.1840   -2.2300    0.1700 H   0  0  0  0  0
   -3.6200   -3.2550   -0.0670 H   0  0  0  0  0
   -7.7530    0.8570    0.0200 H   0  0  0  0  0
   -7.8820   -0.7900   -0.2840 H   0  0  0  0  0
    0.8490   -2.0550   -0.1390 H   0  0  0  0  0
   -2.4560    2.5480    0.5070 H   0  0  0  0  0
   -0.0420    3.0840    0.6870 H   0  0  0  0  0
    3.0760   -2.4930    1.0820 H   0  0  0  0  0
    5.4600   -1.8830    1.0640 H   0  0  0  0  0
    8.0270    1.5790   -0.6660 H   0  0  0  0  0
    6.6810    1.4200   -1.8190 H   0  0  0  0  0
    6.4570    2.3390   -0.3120 H   0  0  0  0  0
    7.8620   -1.3470   -0.1200 H   0  0  0  0  0
    8.3190    0.0050    0.9440 H   0  0  0  0  0
    7.0160   -1.1070    1.4280 H   0  0  0  0  0
    4.5450    1.6220   -1.2090 H   0  0  0  0  0
    2.1630    1.0070   -1.1980 H   0  0  0  0  0
  1  6  1  0  0  0
  2  4  1  0  0  0
  2 24  1  0  0  0
  2 25  1  0  0  0
  2 26  1  0  0  0
  3  6  2  0  0  0
  4  3  1  0  0  0
  4  8  2  0  0  0
  5 27  1  0  0  0
  5 28  1  0  0  0
  6  5  1  0  0  0
  7 15  1  0  0  0
  8  1  1  0  0  0
  9 16  1  0  0  0
  9 29  1  0  0  0
 10  8  1  0  0  0
 10 13  1  0  0  0
 11 21  1  0  0  0
 12 10  2  0  0  0
 12 30  1  0  0  0
 14  7  2  0  0  0
 14 12  1  0  0  0
 14 31  1  0  0  0
 15  9  1  0  0  0
 15 13  2  0  0  0
 16 17  2  0  0  0
 16 23  1  0  0  0
 17 18  1  0  0  0
 17 32  1  0  0  0
 18 19  2  0  0  0
 18 33  1  0  0  0
 19 11  1  0  0  0
 20 11  1  0  0  0
 20 34  1  0  0  0
 20 35  1  0  0  0
 20 36  1  0  0  0
 21 37  1  0  0  0
 21 38  1  0  0  0
 21 39  1  0  0  0
 22 19  1  0  0  0
 22 40  1  0  0  0
 23 22  2  0  0  0
 23 41  1  0  0  0
M  END
$$$$
